Version 4
SHEET 1 1480 708
WIRE 96 -960 0 -960
WIRE 256 -960 96 -960
WIRE 0 -944 0 -960
WIRE 256 -944 256 -960
WIRE 96 -896 96 -960
WIRE 112 -896 96 -896
WIRE 416 -896 400 -896
WIRE 496 -896 480 -896
WIRE 0 -848 0 -864
WIRE 112 -800 96 -800
WIRE 688 -800 400 -800
WIRE 16 -704 -528 -704
WIRE 112 -704 96 -704
WIRE 432 -704 400 -704
WIRE 432 -688 432 -704
WIRE 432 -608 432 -624
WIRE 432 -608 400 -608
WIRE 480 -608 432 -608
WIRE 576 -608 560 -608
WIRE 592 -608 576 -608
WIRE 688 -608 688 -800
WIRE 688 -608 672 -608
WIRE 736 -608 688 -608
WIRE 832 -608 736 -608
WIRE 1344 -608 896 -608
WIRE 736 -592 736 -608
WIRE 832 -592 832 -608
WIRE 112 -512 -272 -512
WIRE 448 -512 400 -512
WIRE 576 -512 576 -608
WIRE 576 -512 448 -512
WIRE 448 -496 448 -512
WIRE 736 -496 736 -528
WIRE 688 -432 688 -608
WIRE 688 -432 576 -432
WIRE 32 -416 16 -416
WIRE 112 -416 96 -416
WIRE 448 -416 448 -432
WIRE 448 -416 400 -416
WIRE 576 -416 576 -432
WIRE 576 -416 448 -416
WIRE 688 -416 688 -432
WIRE 576 -400 576 -416
WIRE -416 -384 -464 -384
WIRE -464 -352 -464 -384
WIRE 112 -320 32 -320
WIRE 576 -320 576 -336
WIRE 576 -320 400 -320
WIRE 688 -320 688 -336
WIRE 688 -320 576 -320
WIRE 32 -304 32 -320
WIRE 688 -304 688 -320
WIRE 192 -256 192 -272
WIRE 320 -256 320 -272
WIRE -416 -224 -416 -384
WIRE -528 -208 -528 -704
WIRE -448 -208 -528 -208
WIRE 32 -208 32 -224
WIRE 688 -208 688 -224
WIRE -272 -192 -272 -512
WIRE -272 -192 -384 -192
WIRE 1344 -192 1344 -608
WIRE 1344 -192 1088 -192
WIRE 1408 -192 1344 -192
WIRE -448 -176 -480 -176
WIRE 1344 -144 1344 -192
WIRE 1408 -144 1408 -192
WIRE -480 -96 -480 -176
WIRE 96 -64 0 -64
WIRE 256 -64 96 -64
WIRE 0 -48 0 -64
WIRE 256 -48 256 -64
WIRE 1344 -48 1344 -64
WIRE 1408 -48 1408 -80
WIRE 1408 -48 1344 -48
WIRE 1344 -32 1344 -48
WIRE -416 -16 -416 -160
WIRE -416 -16 -480 -16
WIRE -480 0 -480 -16
WIRE 96 0 96 -64
WIRE 112 0 96 0
WIRE 416 0 400 0
WIRE 496 0 480 0
WIRE 0 48 0 32
WIRE 112 96 96 96
WIRE 688 96 400 96
WIRE -528 192 -528 -208
WIRE 16 192 -528 192
WIRE 112 192 96 192
WIRE 432 192 400 192
WIRE 432 208 432 192
WIRE 432 288 432 272
WIRE 432 288 400 288
WIRE 480 288 432 288
WIRE 576 288 560 288
WIRE 592 288 576 288
WIRE 688 288 688 96
WIRE 688 288 672 288
WIRE 736 288 688 288
WIRE 832 288 736 288
WIRE 1088 288 1088 -192
WIRE 1088 288 896 288
WIRE 736 304 736 288
WIRE -272 384 -272 -192
WIRE 112 384 -272 384
WIRE 448 384 400 384
WIRE 576 384 576 288
WIRE 576 384 448 384
WIRE 448 400 448 384
WIRE 736 400 736 368
WIRE 688 464 688 288
WIRE 688 464 576 464
WIRE 32 480 16 480
WIRE 112 480 96 480
WIRE 448 480 448 464
WIRE 448 480 400 480
WIRE 576 480 576 464
WIRE 576 480 448 480
WIRE 688 480 688 464
WIRE 576 496 576 480
WIRE 112 576 32 576
WIRE 576 576 576 560
WIRE 576 576 400 576
WIRE 688 576 688 560
WIRE 688 576 576 576
WIRE 32 592 32 576
WIRE 688 592 688 576
WIRE 192 640 192 624
WIRE 320 640 320 624
WIRE 32 688 32 672
WIRE 688 688 688 672
FLAG 192 640 0
FLAG 320 640 0
FLAG 32 688 0
FLAG 16 480 0
FLAG 0 48 0
FLAG 496 0 0
FLAG 736 400 0
FLAG 688 688 0
FLAG 192 -256 0
FLAG 320 -256 0
FLAG 32 -208 0
FLAG 16 -416 0
FLAG 0 -848 0
FLAG 496 -896 0
FLAG 736 -496 0
FLAG 688 -208 0
FLAG 1344 -32 0
FLAG -480 0 0
FLAG -464 -272 0
SYMBOL res 16 576 R0
SYMATTR InstName R1
SYMATTR Value 30.9K
SYMBOL cap 96 464 R90
WINDOW 0 0 32 VBottom 2
WINDOW 3 32 32 VTop 2
SYMATTR InstName C1
SYMATTR Value .001µ
SYMBOL voltage 0 -64 R0
SYMATTR InstName V1
SYMATTR Value 12
SYMBOL cap 416 16 R270
WINDOW 0 32 32 VTop 2
WINDOW 3 0 32 VBottom 2
SYMATTR InstName C2
SYMATTR Value 1µ
SYMBOL ind 464 304 R270
WINDOW 0 32 56 VTop 2
WINDOW 3 5 56 VBottom 2
SYMATTR InstName L1
SYMATTR Value 4.7µ
SYMATTR SpiceLine Rser=3m
SYMBOL cap 416 208 R0
SYMATTR InstName C3
SYMATTR Value .1µ
SYMBOL cap 720 304 R0
SYMATTR InstName C4
SYMATTR Value 22µ
SYMATTR SpiceLine V=6.3 Irms=11.588 Rser=0.003 Lser=0 mfg="KEMET" pn="C1206C226K9PAC" type="X5R"
SYMBOL res 672 464 R0
SYMATTR InstName R2
SYMATTR Value 1.15Meg
SYMBOL res 672 576 R0
SYMATTR InstName R3
SYMATTR Value 499K
SYMBOL cap 560 496 R0
SYMATTR InstName C5
SYMATTR Value 10p
SYMBOL PowerProducts\\LT8611 256 288 R0
SYMATTR InstName U1
SYMBOL res 576 304 R270
WINDOW 0 32 56 VTop 2
WINDOW 3 0 56 VBottom 2
SYMATTR InstName R4
SYMATTR Value 25m
SYMBOL cap 432 400 R0
SYMATTR InstName C6
SYMATTR Value 1µ
SYMBOL res 16 -320 R0
SYMATTR InstName R5
SYMATTR Value 30.9K
SYMBOL cap 96 -432 R90
WINDOW 0 0 32 VBottom 2
WINDOW 3 32 32 VTop 2
SYMATTR InstName C7
SYMATTR Value .001µ
SYMBOL voltage 0 -960 R0
SYMATTR InstName V2
SYMATTR Value 12
SYMBOL cap 416 -880 R270
WINDOW 0 32 32 VTop 2
WINDOW 3 0 32 VBottom 2
SYMATTR InstName C8
SYMATTR Value 1µ
SYMBOL ind 464 -592 R270
WINDOW 0 32 56 VTop 2
WINDOW 3 5 56 VBottom 2
SYMATTR InstName L2
SYMATTR Value 4.7µ
SYMATTR SpiceLine Rser=3m
SYMBOL cap 416 -688 R0
SYMATTR InstName C9
SYMATTR Value .1µ
SYMBOL cap 720 -592 R0
SYMATTR InstName C10
SYMATTR Value 22µ
SYMATTR SpiceLine V=6.3 Irms=11.588 Rser=0.003 Lser=0 mfg="KEMET" pn="C1206C226K9PAC" type="X5R"
SYMBOL res 672 -432 R0
SYMATTR InstName R6
SYMATTR Value 1.15Meg
SYMBOL res 672 -320 R0
SYMATTR InstName R7
SYMATTR Value 499K
SYMBOL cap 560 -400 R0
SYMATTR InstName C11
SYMATTR Value 10p
SYMBOL PowerProducts\\LT8611 256 -608 R0
SYMATTR InstName U2
SYMBOL res 576 -592 R270
WINDOW 0 32 56 VTop 2
WINDOW 3 0 56 VBottom 2
SYMATTR InstName R8
SYMATTR Value 25m
SYMBOL cap 432 -496 R0
SYMATTR InstName C12
SYMATTR Value 1µ
SYMBOL diode 832 -592 R270
WINDOW 0 32 32 VTop 2
WINDOW 3 0 32 VBottom 2
SYMATTR InstName D1
SYMBOL diode 832 304 R270
WINDOW 0 32 32 VTop 2
WINDOW 3 0 32 VBottom 2
SYMATTR InstName D2
SYMBOL cap 1392 -144 R0
SYMATTR InstName C13
SYMATTR Value 100µ
SYMBOL res 1328 -160 R0
SYMATTR InstName R9
SYMATTR Value 100
SYMBOL res 112 -720 R90
WINDOW 0 0 56 VBottom 2
WINDOW 3 32 56 VTop 2
SYMATTR InstName R10
SYMATTR Value 1k
SYMBOL res 112 176 R90
WINDOW 0 0 56 VBottom 2
WINDOW 3 32 56 VTop 2
SYMATTR InstName R11
SYMATTR Value 1k
SYMBOL Opamps\\AD822 -416 -256 R0
SYMATTR InstName U3
SYMBOL voltage -480 -112 R0
WINDOW 123 0 0 Left 0
WINDOW 39 0 0 Left 0
SYMATTR InstName V3
SYMATTR Value 0.1
SYMBOL voltage -464 -368 R0
WINDOW 123 0 0 Left 0
WINDOW 39 0 0 Left 0
SYMATTR InstName V4
SYMATTR Value 2
TEXT 864 616 Left 2 !.tran 750u startup
